system_data/IEEE 14 bus_modified_33.raw
0,   100.00, 33, 0, 0, 60.00     / PSS(R)E 33 RAW created by rawd33  SUN, JUN 13 2021  13:48
 08/19/93 UW ARCHIVE           100.0  1962 W IEEE 14 BUS TES

     1,'BUS 1       ', 220.0000,1,   1,   1,   1,1.06000,  -0.0012,1.10000,0.90000,1.10000,0.90000
     2,'BUS 2       ', 220.0000,1,   1,   1,   1,1.04500,  -4.9529,1.10000,0.90000,1.10000,0.90000
     3,'BUS 3       ', 220.0000,1,   1,   1,   1,1.01000, -12.6168,1.10000,0.90000,1.10000,0.90000
     4,'BUS 4       ', 220.0000,1,   1,   1,   1,1.02950, -10.4216,1.10000,0.90000,1.10000,0.90000
     5,'BUS 5       ', 220.0000,1,   1,   1,   1,1.03489,  -8.9570,1.10000,0.90000,1.10000,0.90000
     6,'BUS 6       ', 132.0000,1,   1,   1,   1,1.07000, -14.6721,1.10000,0.90000,1.10000,0.90000
     7,'BUS 7       ', 132.0000,1,   1,   1,   1,1.05593, -13.5551,1.10000,0.90000,1.10000,0.90000
     8,'BUS 8       ', 132.0000,1,   1,   1,   1,1.09000, -13.5551,1.10000,0.90000,1.10000,0.90000
     9,'BUS 9       ', 132.0000,1,   1,   1,   1,1.04978, -15.1711,1.10000,0.90000,1.10000,0.90000
    10,'BUS 10      ', 132.0000,1,   1,   1,   1,1.04591, -15.3672,1.10000,0.90000,1.10000,0.90000
    11,'BUS 11      ', 132.0000,1,   1,   1,   1,1.05434, -15.1464,1.10000,0.90000,1.10000,0.90000
    12,'BUS 12      ', 132.0000,1,   1,   1,   1,1.05470, -15.5163,1.10000,0.90000,1.10000,0.90000
    13,'BUS 13      ', 132.0000,1,   1,   1,   1,1.04950, -15.5758,1.10000,0.90000,1.10000,0.90000
    14,'BUS 14      ', 132.0000,1,   1,   1,   1,1.03161, -16.3541,1.10000,0.90000,1.10000,0.90000
    15,'BUS 15      ',  22.0000,3,   1,   1,   1,1.06000,   0.0000,1.10000,0.90000,1.10000,0.90000
    16,'BUS 16      ',  13.8000,2,   1,   1,   1,1.04500,  -4.9527,1.10000,0.90000,1.10000,0.90000
    17,'BUS 17      ',  13.8000,2,   1,   1,   1,1.01000, -12.6168,1.10000,0.90000,1.10000,0.90000
    18,'BUS 18      ',  13.8000,2,   1,   1,   1,1.09000, -13.5551,1.10000,0.90000,1.10000,0.90000
    19,'BUS 19      ',  13.8000,2,   1,   1,   1,1.07000, -14.6721,1.10000,0.90000,1.10000,0.90000
 0 /End of Bus data, Begin Load data
     2,'1 ',1,   1,   1,    21.700,    12.700,     0.000,     0.000,     0.000,     0.000,   1,1,0
     3,'1 ',1,   1,   1,    94.200,    19.000,     0.000,     0.000,     0.000,     0.000,   1,1,0
     4,'1 ',1,   1,   1,    47.800,    -3.900,     0.000,     0.000,     0.000,     0.000,   1,1,0
     5,'1 ',1,   1,   1,     7.600,     1.600,     0.000,     0.000,     0.000,     0.000,   1,1,0
     6,'1 ',1,   1,   1,    11.200,     7.500,     0.000,     0.000,     0.000,     0.000,   1,1,0
     9,'1 ',1,   1,   1,    29.500,    16.600,     0.000,     0.000,     0.000,     0.000,   1,1,0
    10,'1 ',1,   1,   1,     9.000,     5.800,     0.000,     0.000,     0.000,     0.000,   1,1,0
    11,'1 ',1,   1,   1,     3.500,     1.800,     0.000,     0.000,     0.000,     0.000,   1,1,0
    12,'1 ',1,   1,   1,     6.100,     1.600,     0.000,     0.000,     0.000,     0.000,   1,1,0
    13,'1 ',1,   1,   1,    13.500,     5.800,     0.000,     0.000,     0.000,     0.000,   1,1,0
    14,'1 ',1,   1,   1,    14.900,     5.000,     0.000,     0.000,     0.000,     0.000,   1,1,0
 0 /End of Load data, Begin Fixed shunt data
     9,' 1',1,     0.000,    19.090
 0 /End of Fixed shunt data, Begin Generator data
    15,'1 ',   232.375,   -23.520,  9999.000, -9999.000,1.06000,     0,   448.000, 0.00000E+0, 1.00000E+0, 0.00000E+0, 0.00000E+0,1.00000,1,  100.0,  9999.000, -9999.000,   1,1.0000
    16,'1 ',    40.000,    27.387,  9999.000, -9999.000,1.04500,     0,   100.000, 0.00000E+0, 1.00000E+0, 0.00000E+0, 0.00000E+0,1.00000,1,  100.0,  9999.000, -9999.000,   1,1.0000
    17,'1 ',     0.000,    18.005,  9999.000, -9999.000,1.01000,     0,    40.000, 0.00000E+0, 1.00000E+0, 0.00000E+0, 0.00000E+0,1.00000,1,  100.0,  9999.000, -9999.000,   1,1.0000
    18,'1 ',     0.000,    21.083,  9999.000, -9999.000,1.09000,     0,    25.000, 0.00000E+0, 1.00000E+0, 0.00000E+0, 0.00000E+0,1.00000,1,  100.0,  9999.000, -9999.000,   1,1.0000
    19,'1 ',     0.000,    40.321,  9999.000, -9999.000,1.07000,     0,    25.000, 0.00000E+0, 1.00000E+0, 0.00000E+0, 0.00000E+0,1.00000,1,  100.0,  9999.000, -9999.000,   1,1.0000
 0 /End of Generator data, Begin Branch data
     1,     2,'1 ', 1.93800E-2, 5.91700E-2,   0.05280,    0.00,    0.00,    0.00,  0.00000,  0.00000,  0.00000,  0.00000,1,1,   0.00,   1,1.0000
     1,     5,'1 ', 5.40300E-2, 2.23040E-1,   0.04920,    0.00,    0.00,    0.00,  0.00000,  0.00000,  0.00000,  0.00000,1,1,   0.00,   1,1.0000
     2,     3,'1 ', 4.69900E-2, 1.97970E-1,   0.04380,    0.00,    0.00,    0.00,  0.00000,  0.00000,  0.00000,  0.00000,1,1,   0.00,   1,1.0000
     2,     4,'1 ', 5.81100E-2, 1.76320E-1,   0.03400,    0.00,    0.00,    0.00,  0.00000,  0.00000,  0.00000,  0.00000,1,1,   0.00,   1,1.0000
     2,     5,'1 ', 5.69500E-2, 1.73880E-1,   0.03460,    0.00,    0.00,    0.00,  0.00000,  0.00000,  0.00000,  0.00000,1,1,   0.00,   1,1.0000
     3,     4,'1 ', 6.70100E-2, 1.71030E-1,   0.01280,    0.00,    0.00,    0.00,  0.00000,  0.00000,  0.00000,  0.00000,1,1,   0.00,   1,1.0000
     4,     5,'1 ', 1.33500E-2, 4.21100E-2,   0.00000,    0.00,    0.00,    0.00,  0.00000,  0.00000,  0.00000,  0.00000,1,1,   0.00,   1,1.0000
     6,    11,'1 ', 9.49800E-2, 1.98900E-1,   0.00000,    0.00,    0.00,    0.00,  0.00000,  0.00000,  0.00000,  0.00000,1,1,   0.00,   1,1.0000
     6,    12,'1 ', 1.22910E-1, 2.55810E-1,   0.00000,    0.00,    0.00,    0.00,  0.00000,  0.00000,  0.00000,  0.00000,1,1,   0.00,   1,1.0000
     6,    13,'1 ', 6.61500E-2, 1.30270E-1,   0.00000,    0.00,    0.00,    0.00,  0.00000,  0.00000,  0.00000,  0.00000,1,1,   0.00,   1,1.0000
     7,     8,'1 ',-0.00000E+0, 1.76150E-1,   0.00000,    0.00,    0.00,    0.00,  0.00000,  0.00000,  0.00000,  0.00000,1,1,   0.00,   1,1.0000
     7,     9,'1 ',-0.00000E+0, 1.10010E-1,   0.00000,    0.00,    0.00,    0.00,  0.00000,  0.00000,  0.00000,  0.00000,1,1,   0.00,   1,1.0000
     9,    10,'1 ', 3.18100E-2, 8.45000E-2,   0.00000,    0.00,    0.00,    0.00,  0.00000,  0.00000,  0.00000,  0.00000,1,1,   0.00,   1,1.0000
     9,    14,'1 ', 1.27110E-1, 2.70380E-1,   0.00000,    0.00,    0.00,    0.00,  0.00000,  0.00000,  0.00000,  0.00000,1,1,   0.00,   1,1.0000
    10,    11,'1 ', 8.20500E-2, 1.92070E-1,   0.00000,    0.00,    0.00,    0.00,  0.00000,  0.00000,  0.00000,  0.00000,1,1,   0.00,   1,1.0000
    12,    13,'1 ', 2.20920E-1, 1.99880E-1,   0.00000,    0.00,    0.00,    0.00,  0.00000,  0.00000,  0.00000,  0.00000,1,1,   0.00,   1,1.0000
    13,    14,'1 ', 1.70930E-1, 3.48020E-1,   0.00000,    0.00,    0.00,    0.00,  0.00000,  0.00000,  0.00000,  0.00000,1,1,   0.00,   1,1.0000
 0 /End of Branch data, Begin Transformer data
     1,    15,     0,'1 ',1,1,1, 0.00000E+0, 0.00000E+0,2,'            ',1,   1,1.0000,   0,1.0000,   0,1.0000,   0,1.0000,'            '
 0.00000E+0, 1.00000E-5,   100.00
1.00000,   0.000,   0.000,     0.00,     0.00,     0.00, 0,      0, 1.10000, 0.90000, 1.10000, 0.90000,  33, 0, 0.00000, 0.00000,  0.000
1.00000,   0.000
     2,    16,     0,'1 ',1,1,1, 0.00000E+0, 0.00000E+0,2,'            ',1,   1,1.0000,   0,1.0000,   0,1.0000,   0,1.0000,'            '
 0.00000E+0, 1.00000E-5,   100.00
1.00000,   0.000,   0.000,     0.00,     0.00,     0.00, 0,      0, 1.10000, 0.90000, 1.10000, 0.90000,  33, 0, 0.00000, 0.00000,  0.000
1.00000,   0.000
     3,    17,     0,'1 ',1,1,1, 0.00000E+0, 0.00000E+0,2,'            ',1,   1,1.0000,   0,1.0000,   0,1.0000,   0,1.0000,'            '
 0.00000E+0, 1.00000E-5,   100.00
1.00000,   0.000,   0.000,     0.00,     0.00,     0.00, 0,      0, 1.10000, 0.90000, 1.10000, 0.90000,  33, 0, 0.00000, 0.00000,  0.000
1.00000,   0.000
     4,     7,     0,'1 ',1,1,1, 0.00000E+0, 0.00000E+0,2,'            ',1,   1,1.0000,   0,1.0000,   0,1.0000,   0,1.0000,'            '
 0.00000E+0, 2.09120E-1,   100.00
1.00000,   0.000,   0.000,     0.00,     0.00,     0.00, 0,      0, 1.50000, 0.51000, 1.50000, 0.51000, 159, 0, 0.00000, 0.00000,  0.000
1.00000,   0.000
     4,     9,     0,'1 ',1,1,1, 0.00000E+0, 0.00000E+0,2,'            ',1,   1,1.0000,   0,1.0000,   0,1.0000,   0,1.0000,'            '
 0.00000E+0, 5.56180E-1,   100.00
1.00000,   0.000,   0.000,     0.00,     0.00,     0.00, 0,      0, 1.50000, 0.51000, 1.50000, 0.51000, 159, 0, 0.00000, 0.00000,  0.000
1.00000,   0.000
     5,     6,     0,'1 ',1,1,1, 0.00000E+0, 0.00000E+0,2,'            ',1,   1,1.0000,   0,1.0000,   0,1.0000,   0,1.0000,'            '
 0.00000E+0, 2.52020E-1,   100.00
1.00000,   0.000,   0.000,     0.00,     0.00,     0.00, 0,      0, 1.50000, 0.51000, 1.50000, 0.51000, 159, 0, 0.00000, 0.00000,  0.000
1.00000,   0.000
     6,    19,     0,'1 ',1,1,1, 0.00000E+0, 0.00000E+0,2,'            ',1,   1,1.0000,   0,1.0000,   0,1.0000,   0,1.0000,'            '
 0.00000E+0, 1.00000E-5,   100.00
1.00000,   0.000,   0.000,     0.00,     0.00,     0.00, 0,      0, 1.10000, 0.90000, 1.10000, 0.90000,  33, 0, 0.00000, 0.00000,  0.000
1.00000,   0.000
     8,    18,     0,'1 ',1,1,1, 0.00000E+0, 0.00000E+0,2,'            ',1,   1,1.0000,   0,1.0000,   0,1.0000,   0,1.0000,'            '
 0.00000E+0, 1.00000E-5,   100.00
1.00000,   0.000,   0.000,     0.00,     0.00,     0.00, 0,      0, 1.10000, 0.90000, 1.10000, 0.90000,  33, 0, 0.00000, 0.00000,  0.000
1.00000,   0.000
 0 /End of Transformer data, Begin Area interchange data
   1,     0,     0.000,   999.990,'IEEE14      '
 0 /End of Area interchange data, Begin Two-terminal dc line data
 0 /End of Two-terminal dc line data, Begin VSC dc line data
 0 /End of VSC dc line data, Begin Impedance correction table data
 0 /End of Impedance correction table data, Begin Multi-terminal dc line data
 0 /End of Multi-terminal dc line data, Begin Multi-section line data
 0 /End of Multi-section line data, Begin Zone data
   1,'IEEE 14     '
 0 /End of Zone data, Begin Inter-area transfer data
 0 /End of Inter-area transfer data, Begin Owner data
   1,'1           '
 0 /End of Owner data, Begin FACTS device data
 0 /End of FACTS device data, Begin Switched shunt data
 0 /End of Switched shunt data, Begin GNE device data
 0 /End of GNE device data, Begin Induction machine data
 0 /End of Induction machine data
Q
